  Page 1                                    Wed Apr 16 16:28:23 2025

  ******************************************************************
  *                           E P A N E T                          *
  *                   Hydraulic and Water Quality                  *
  *                   Analysis for Pipe Networks                   *
  *                         Version 2.2                            *
  ******************************************************************
  
  Analysis begun Wed Apr 16 16:28:23 2025

  Analysis ended Wed Apr 16 16:28:23 2025
